<?xml version="1.0" encoding="UTF-8"?>

<!-- generated on 2025-05-08 18:18:23.147303 by randomTrips.py v1_22_0+0002-63e50f52594
<configuration>
    <net-file value="network.net.xml"/>
    <route-file value="random_heavy_traffic.rou.xml"/>
    <prefix value="veh_21419"/>
    <trip-attributes value="departSpeed=&quot;max&quot;"/>
    <seed value="21419"/>
    <validate value="True"/>
    <end value="100.0"/>
    <period value="5.0"/>
</configuration>
-->

<!-- generated on 2025-05-08 18:18:23 by Eclipse SUMO duarouter Version 1.22.0
<duarouterConfiguration xmlns:xsi="http://www.w3.org/2001/XMLSchema-instance" xsi:noNamespaceSchemaLocation="http://sumo.dlr.de/xsd/duarouterConfiguration.xsd">

    <input>
        <net-file value="network.net.xml"/>
        <route-files value="trips.trips.xml"/>
    </input>

    <output>
        <output-file value="random_heavy_traffic.rou.xml"/>
        <alternatives-output value="NUL"/>
    </output>

    <time>
        <begin value="0.0"/>
        <end value="100.0"/>
    </time>

    <report>
        <no-warnings value="true"/>
        <ignore-errors value="true"/>
        <no-step-log value="true"/>
    </report>

</duarouterConfiguration>
-->

<routes xmlns:xsi="http://www.w3.org/2001/XMLSchema-instance" xsi:noNamespaceSchemaLocation="http://sumo.dlr.de/xsd/routes_file.xsd">
    <vehicle id="veh_214190" depart="0.00" departSpeed="max">
        <route edges="west2center center2south"/>
    </vehicle>
    <vehicle id="veh_214191" depart="5.00" departSpeed="max">
        <route edges="north2center center2south"/>
    </vehicle>
    <vehicle id="veh_214192" depart="10.00" departSpeed="max">
        <route edges="west2center center2south"/>
    </vehicle>
    <vehicle id="veh_214193" depart="15.00" departSpeed="max">
        <route edges="north2center center2east"/>
    </vehicle>
    <vehicle id="veh_214194" depart="20.00" departSpeed="max">
        <route edges="north2center center2south"/>
    </vehicle>
    <vehicle id="veh_214195" depart="25.00" departSpeed="max">
        <route edges="west2center center2east"/>
    </vehicle>
    <vehicle id="veh_214196" depart="30.00" departSpeed="max">
        <route edges="north2center center2south"/>
    </vehicle>
    <vehicle id="veh_214197" depart="35.00" departSpeed="max">
        <route edges="west2center center2south"/>
    </vehicle>
    <vehicle id="veh_214198" depart="40.00" departSpeed="max">
        <route edges="north2center center2east"/>
    </vehicle>
    <vehicle id="veh_214199" depart="45.00" departSpeed="max">
        <route edges="west2center center2south"/>
    </vehicle>
    <vehicle id="veh_2141910" depart="50.00" departSpeed="max">
        <route edges="north2center center2south"/>
    </vehicle>
    <vehicle id="veh_2141911" depart="55.00" departSpeed="max">
        <route edges="west2center center2east"/>
    </vehicle>
    <vehicle id="veh_2141912" depart="60.00" departSpeed="max">
        <route edges="north2center center2south"/>
    </vehicle>
    <vehicle id="veh_2141913" depart="65.00" departSpeed="max">
        <route edges="north2center center2east"/>
    </vehicle>
    <vehicle id="veh_2141914" depart="70.00" departSpeed="max">
        <route edges="west2center center2south"/>
    </vehicle>
    <vehicle id="veh_2141915" depart="75.00" departSpeed="max">
        <route edges="west2center center2south"/>
    </vehicle>
    <vehicle id="veh_2141916" depart="80.00" departSpeed="max">
        <route edges="west2center center2south"/>
    </vehicle>
    <vehicle id="veh_2141917" depart="85.00" departSpeed="max">
        <route edges="west2center center2east"/>
    </vehicle>
    <vehicle id="veh_2141918" depart="90.00" departSpeed="max">
        <route edges="north2center center2south"/>
    </vehicle>
    <vehicle id="veh_2141919" depart="95.00" departSpeed="max">
        <route edges="north2center center2south"/>
    </vehicle>
</routes>
